
**** 08/09/23 14:37:33 ****** PSpice Lite (October 2012) ****** ID# 10813 ****

 ** Profile: "SCHEMATIC1-Body_plote"  [ X:\Projects\Engineering\ProjectScience\HW_PCB\Cadence\010-pspicefiles\schematic1\body_plote.s


 ****     CIRCUIT DESCRIPTION


******************************************************************************




** Creating circuit file "Body_plote.cir" 
** WARNING: THIS AUTOMATICALLY GENERATED FILE MAY BE OVERWRITTEN BY SUBSEQUENT SIMULATIONS

*Libraries: 
* Profile Libraries :
* Local Libraries :
* From [PSPICE NETLIST] section of C:\Users\InnovusSollertia\AppData\Roaming\SPB_Data\cdssetup\OrCAD_PSpice/16.6.0/PSpice.ini file:
.lib "nomd.lib" 

*Analysis directives: 
.AC DEC 11 1 100k
.OPTIONS ADVCONV
.PROBE64 V(alias(*)) I(alias(*)) W(alias(*)) D(alias(*)) NOISE(alias(*)) 
.INC "..\SCHEMATIC1.net" 



**** INCLUDING SCHEMATIC1.net ****
* source 010
R_R1         N00114 N00121  1k TC=0,0 
C_C1         0 N00121  1u  TC=0,0 
V_V1         N00114 0 DC 0Vdc AC 1Vac 

**** RESUMING Body_plote.cir ****
.END

**** 08/09/23 14:37:33 ****** PSpice Lite (October 2012) ****** ID# 10813 ****

 ** Profile: "SCHEMATIC1-Body_plote"  [ X:\Projects\Engineering\ProjectScience\HW_PCB\Cadence\010-pspicefiles\schematic1\body_plote.s


 ****     SMALL SIGNAL BIAS SOLUTION       TEMPERATURE =   27.000 DEG C


******************************************************************************



 NODE   VOLTAGE     NODE   VOLTAGE     NODE   VOLTAGE     NODE   VOLTAGE


(N00114)    0.0000 (N00121)    0.0000 




    VOLTAGE SOURCE CURRENTS
    NAME         CURRENT

    V_V1         0.000E+00

    TOTAL POWER DISSIPATION   0.00E+00  WATTS



          JOB CONCLUDED

**** 08/09/23 14:37:33 ****** PSpice Lite (October 2012) ****** ID# 10813 ****

 ** Profile: "SCHEMATIC1-Body_plote"  [ X:\Projects\Engineering\ProjectScience\HW_PCB\Cadence\010-pspicefiles\schematic1\body_plote.s


 ****     JOB STATISTICS SUMMARY


******************************************************************************



  Total job time (using Solver 1)   =         .03
